# File generated by Flopy version 3.3.6 on 10/07/2022 at 11:12:19.
BEGIN options
END options

BEGIN dimensions
  MAXBOUND  2
END dimensions

BEGIN period  1
  1 2 3      94.00000000      10.00000000
  1 2 4      95.00000000      10.00000000
END period  1

BEGIN period  2
  1 2 3      94.00000000      10.00000000
  1 2 4      95.00000000      10.00000000
END period  2

BEGIN period  3
  1 2 3      94.00000000      10.00000000
  1 2 4      95.00000000      10.00000000
END period  3

BEGIN period  4
  1 2 3      94.00000000      10.00000000
  1 2 4      95.00000000      10.00000000
END period  4

BEGIN period  5
  1 2 3      94.00000000      10.00000000
  1 2 4      95.00000000      10.00000000
END period  5

BEGIN period  6
  1 2 3      94.00000000      10.00000000
  1 2 4      95.00000000      10.00000000
END period  6

BEGIN period  7
  1 2 3      94.00000000      10.00000000
  1 2 4      95.00000000      10.00000000
END period  7

BEGIN period  8
  1 2 3      94.00000000      10.00000000
  1 2 4      95.00000000      10.00000000
END period  8

BEGIN period  9
  1 2 3      94.00000000      10.00000000
  1 2 4      95.00000000      10.00000000
END period  9

BEGIN period  10
  1 2 3      94.00000000      10.00000000
  1 2 4      95.00000000      10.00000000
END period  10

BEGIN period  11
  1 2 3      94.00000000      10.00000000
  1 2 4      95.00000000      10.00000000
END period  11

BEGIN period  12
  1 2 3      94.00000000      10.00000000
  1 2 4      95.00000000      10.00000000
END period  12

