# File generated by Flopy version 3.3.6 on 10/07/2022 at 11:12:19.
BEGIN options
END options

BEGIN dimensions
  MAXBOUND  12
END dimensions

BEGIN period  1
  1 1 3     95.00000000
  1 1 4     95.00000000
  1 1 5     95.00000000
  1 1 6     95.00000000
  1 1 7     95.00000000
  1 1 8     95.00000000
  1 10 3     75.00000000
  1 10 4     75.00000000
  1 10 5     75.00000000
  1 10 6     75.00000000
  1 10 7     75.00000000
  1 10 8     75.00000000
END period  1

BEGIN period  2
  1 1 3     95.00000000
  1 1 4     95.00000000
  1 1 5     95.00000000
  1 1 6     95.00000000
  1 1 7     95.00000000
  1 1 8     95.00000000
  1 10 3     75.00000000
  1 10 4     75.00000000
  1 10 5     75.00000000
  1 10 6     75.00000000
  1 10 7     75.00000000
  1 10 8     75.00000000
END period  2

BEGIN period  3
  1 1 3     95.00000000
  1 1 4     95.00000000
  1 1 5     95.00000000
  1 1 6     95.00000000
  1 1 7     95.00000000
  1 1 8     95.00000000
  1 10 3     75.00000000
  1 10 4     75.00000000
  1 10 5     75.00000000
  1 10 6     75.00000000
  1 10 7     75.00000000
  1 10 8     75.00000000
END period  3

BEGIN period  4
  1 1 3     95.00000000
  1 1 4     95.00000000
  1 1 5     95.00000000
  1 1 6     95.00000000
  1 1 7     95.00000000
  1 1 8     95.00000000
  1 10 3     75.00000000
  1 10 4     75.00000000
  1 10 5     75.00000000
  1 10 6     75.00000000
  1 10 7     75.00000000
  1 10 8     75.00000000
END period  4

BEGIN period  5
  1 1 3     95.00000000
  1 1 4     95.00000000
  1 1 5     95.00000000
  1 1 6     95.00000000
  1 1 7     95.00000000
  1 1 8     95.00000000
  1 10 3     75.00000000
  1 10 4     75.00000000
  1 10 5     75.00000000
  1 10 6     75.00000000
  1 10 7     75.00000000
  1 10 8     75.00000000
END period  5

BEGIN period  6
  1 1 3     95.00000000
  1 1 4     95.00000000
  1 1 5     95.00000000
  1 1 6     95.00000000
  1 1 7     95.00000000
  1 1 8     95.00000000
  1 10 3     75.00000000
  1 10 4     75.00000000
  1 10 5     75.00000000
  1 10 6     75.00000000
  1 10 7     75.00000000
  1 10 8     75.00000000
END period  6

BEGIN period  7
  1 1 3     95.00000000
  1 1 4     95.00000000
  1 1 5     95.00000000
  1 1 6     95.00000000
  1 1 7     95.00000000
  1 1 8     95.00000000
  1 10 3     75.00000000
  1 10 4     75.00000000
  1 10 5     75.00000000
  1 10 6     75.00000000
  1 10 7     75.00000000
  1 10 8     75.00000000
END period  7

BEGIN period  8
  1 1 3     95.00000000
  1 1 4     95.00000000
  1 1 5     95.00000000
  1 1 6     95.00000000
  1 1 7     95.00000000
  1 1 8     95.00000000
  1 10 3     75.00000000
  1 10 4     75.00000000
  1 10 5     75.00000000
  1 10 6     75.00000000
  1 10 7     75.00000000
  1 10 8     75.00000000
END period  8

BEGIN period  9
  1 1 3     95.00000000
  1 1 4     95.00000000
  1 1 5     95.00000000
  1 1 6     95.00000000
  1 1 7     95.00000000
  1 1 8     95.00000000
  1 10 3     75.00000000
  1 10 4     75.00000000
  1 10 5     75.00000000
  1 10 6     75.00000000
  1 10 7     75.00000000
  1 10 8     75.00000000
END period  9

BEGIN period  10
  1 1 3     95.00000000
  1 1 4     95.00000000
  1 1 5     95.00000000
  1 1 6     95.00000000
  1 1 7     95.00000000
  1 1 8     95.00000000
  1 10 3     75.00000000
  1 10 4     75.00000000
  1 10 5     75.00000000
  1 10 6     75.00000000
  1 10 7     75.00000000
  1 10 8     75.00000000
END period  10

BEGIN period  11
  1 1 3     95.00000000
  1 1 4     95.00000000
  1 1 5     95.00000000
  1 1 6     95.00000000
  1 1 7     95.00000000
  1 1 8     95.00000000
  1 10 3     75.00000000
  1 10 4     75.00000000
  1 10 5     75.00000000
  1 10 6     75.00000000
  1 10 7     75.00000000
  1 10 8     75.00000000
END period  11

BEGIN period  12
  1 1 3     95.00000000
  1 1 4     95.00000000
  1 1 5     95.00000000
  1 1 6     95.00000000
  1 1 7     95.00000000
  1 1 8     95.00000000
  1 10 3     75.00000000
  1 10 4     75.00000000
  1 10 5     75.00000000
  1 10 6     75.00000000
  1 10 7     75.00000000
  1 10 8     75.00000000
END period  12

