# File generated by Flopy version 3.3.6 on 10/07/2022 at 11:12:19.
BEGIN options
  READASARRAYS
END options

BEGIN period  1
  recharge
    CONSTANT       0.00100000
END period  1

