# File generated by Flopy version 3.3.6 on 10/07/2022 at 11:12:19.
BEGIN griddata
  strt
    CONSTANT      95.00000000
END griddata

