# File generated by Flopy version 3.3.6 on 10/07/2022 at 11:12:19.
BEGIN options
  PRINT_INPUT
  PRINT_FLOWS
  SAVE_FLOWS
  NEWTON  UNDER_RELAXATION
END options

BEGIN packages
  DIS6  test_model.dis  dis
  IC6  test_model.ic  ic
  NPF6  test_model.npf  npf
  STO6  test_model.sto  sto
  WEL6  test_model.wel  wel_0
  DRN6  test_model.drn  drn_0
  RCH6  test_model.rch  rch_0
  RCH6  test_model.rcha  rcha_0
  CHD6  test_model.chd  chd_0
  EVT6  test_model.evt  evt_0
  OC6  test_model.oc  oc
END packages

