# File generated by Flopy version 3.3.6 on 10/07/2022 at 11:12:19.
BEGIN options
  PRINT_OPTION  all
  COMPLEXITY  complex
  NO_PTC  ALL
END options

BEGIN nonlinear
  UNDER_RELAXATION  dbd
  UNDER_RELAXATION_GAMMA       0.00000000
  UNDER_RELAXATION_THETA       0.97000000
  UNDER_RELAXATION_KAPPA  1.00000000E-04
END nonlinear

BEGIN linear
  inner_rclose  1.00000000E-10  L2NORM_RCLOSE
  LINEAR_ACCELERATION  bicgstab
  SCALING_METHOD  l2norm
END linear

