# File generated by Flopy version 3.3.6 on 10/07/2022 at 11:12:19.
BEGIN options
AUXILIARY TEST1 TEST2
END options

BEGIN dimensions
  MAXBOUND  10
END dimensions

BEGIN period  1
  1 6 5    -100.00000000 1.0 2.0
  1 2 3     -50.00000000 1.0 2.0
END period  1

BEGIN period  2
  1 6 5    -100.00000000 1.0 2.0
  1 2 3     -50.00000000 1.0 2.0
END period  2

BEGIN period  3
  1 6 5    -100.00000000 1.0 2.0
  1 2 3     -50.00000000 1.0 2.0
END period  3

BEGIN period  4
  1 6 5    -100.00000000 1.0 2.0
  1 2 3     -50.00000000 1.0 2.0
END period  4

BEGIN period  5
  1 6 5    -100.00000000 1.0 2.0
  1 2 3     -50.00000000 1.0 2.0
END period  5

BEGIN period  6
  1 6 5    -100.00000000 1.0 2.0
  1 2 3     -50.00000000 1.0 2.0
END period  6

BEGIN period  7
  1 6 5    -100.00000000 1.0 2.0
  1 2 3     -50.00000000 1.0 2.0
END period  7

BEGIN period  8
  1 6 5    -100.00000000 1.0 2.0
  1 2 3     -50.00000000 1.0 2.0
END period  8

BEGIN period  9
  1 6 5    -100.00000000 1.0 2.0
  1 2 3     -50.00000000 1.0 2.0
END period  9

BEGIN period  10
  1 6 5    -100.00000000 1.0 2.0
  1 2 3     -50.00000000 1.0 2.0
END period  10

BEGIN period  11
  1 6 5    -100.00000000 1.0 2.0
  1 2 3     -50.00000000 1.0 2.0
END period  11

BEGIN period  12
  1 6 5    -100.00000000 1.0 2.0
  1 2 3     -50.00000000 1.0 2.0
END period  12

