# File generated by Flopy version 3.3.6 on 10/07/2022 at 11:12:19.
BEGIN options
  TIME_UNITS  days
END options

BEGIN dimensions
  NPER  12
END dimensions

BEGIN perioddata
      31.00000000  31       1.00000000
      28.00000000  28       1.00000000
      31.00000000  31       1.00000000
      30.00000000  30       1.00000000
      31.00000000  31       1.00000000
      30.00000000  30       1.00000000
      31.00000000  31       1.00000000
      31.00000000  31       1.00000000
      30.00000000  30       1.00000000
      31.00000000  31       1.00000000
      30.00000000  30       1.00000000
      31.00000000  31       1.00000000
END perioddata

