# File generated by Flopy version 3.3.6 on 12/21/2022 at 10:15:53.
BEGIN options
  BUDGET  FILEOUT  gwf_ats01a.cbc
  HEAD  FILEOUT  gwf_ats01a.hds
  HEAD  PRINT_FORMAT  COLUMNS  10  WIDTH  15  DIGITS  6  GENERAL
END options

BEGIN period  1
  SAVE  HEAD  ALL
  PRINT  HEAD  ALL
  PRINT  BUDGET  ALL
END period  1

