# File generated by Flopy version 3.3.6 on 12/21/2022 at 10:15:53.
BEGIN options
END options

BEGIN dimensions
  NLAY  1
  NROW  1
  NCOL  2
END dimensions

BEGIN griddata
  delr
    CONSTANT     100.00000000
  delc
    CONSTANT       1.00000000
  top
    CONSTANT     100.00000000
  botm
    CONSTANT       0.00000000
  idomain
    INTERNAL  FACTOR  1
    1  1
END griddata

