# File generated by Flopy version 3.3.6 on 12/21/2022 at 10:15:53.
BEGIN dimensions
  MAXATS  2
END dimensions

BEGIN perioddata
  1       5.00000000  1.00100000E-05      10.00000000       2.00000000       5.00000000
  8       5.00000000  1.00100000E-05      10.00000000       2.00000000       5.00000000
END perioddata

