# File generated by Flopy version 3.3.6 on 12/21/2022 at 10:15:53.
BEGIN options
END options

BEGIN packages
  DIS6  gwf_ats01a.dis  dis
  IC6  gwf_ats01a.ic  ic
  NPF6  gwf_ats01a.npf  npf
  STO6  gwf_ats01a.sto  sto
  WEL6  gwf_ats01a.wel  wel_0
  GHB6  gwf_ats01a.ghb  ghb_0
  OC6  gwf_ats01a.oc  oc
  OBS6  gwf_ats01a.obs  head_obs
END packages

