# File generated by Flopy version 3.3.6 on 12/21/2022 at 10:15:53.
BEGIN options
  PRINT_INPUT
  PRINT_FLOWS
END options

BEGIN dimensions
  MAXBOUND  1
END dimensions

BEGIN period  1
  1 1 2     -10.00000000
END period  1

