# File generated by Flopy version 3.3.6 on 12/21/2022 at 10:15:53.
BEGIN griddata
  strt
    CONSTANT      50.00000000
END griddata

