# File generated by Flopy version 3.3.6 on 12/21/2022 at 10:15:53.
BEGIN options
  TIME_UNITS  days
  ATS6  FILEIN  gwf_ats01a.ats
END options

BEGIN dimensions
  NPER  1
END dimensions

BEGIN perioddata
      10.00000000  1       1.00000000
END perioddata

