# File generated by Flopy version 3.3.6 on 12/21/2022 at 10:15:53.
BEGIN options
END options

BEGIN griddata
  icelltype
    CONSTANT  1
  k
    CONSTANT       1.00000000
END griddata

