# File generated by Flopy version 3.3.6 on 12/21/2022 at 10:15:53.
BEGIN options
END options

BEGIN timing
  TDIS6  gwf_ats01a.tdis
END timing

BEGIN models
  gwf6  gwf_ats01a.nam  gwf_ats01a
END models

BEGIN exchanges
END exchanges

BEGIN solutiongroup  1
  ims6  gwf_ats01a.ims  gwf_ats01a
END solutiongroup  1

